8
prop-2-enal
C     -0.58780   -0.39670   -0.00030
O     -1.68290    0.12550   -0.00000
C      0.61750    0.43190    0.00020
C      1.82210   -0.14250   -0.00010
H     -0.50290   -1.47330    0.00350
H      0.53260    1.50860    0.00090
H      1.90700   -1.21920   -0.00080
H      2.71210    0.46930    0.00030
