19
XYZ file generated by Avogadro.
C      1.40300    0.12228   -0.55963
C      2.36863   -0.08991    0.34534
C      3.15998    0.99265    1.01935
S      4.91800    0.79107    0.61548
S      5.73435    2.36460    1.60032
O      5.27729    2.04692    2.99328
C      7.51591    1.98525    1.47524
C      8.33063    3.04766    2.15381
C      9.25007    3.80699    1.54362
H      0.86098   -0.71112   -0.99721
H      1.13000    1.12175   -0.88415
H      2.59043   -1.11361    0.64191
H      3.01063    0.92199    2.10110
H      2.82916    1.98403    0.69165
H      7.76858    1.91042    0.41251
H      7.70307    1.01693    1.94999
H      8.15723    3.18301    3.22142
H      9.47028    3.70780    0.48552
H      9.80975    4.55237    2.10162
