20
ascorbic acid
C     -2.55860    0.86830   -0.23780
H      3.69690   -0.07790    0.78760
H     -2.40010   -1.71530   -0.80920
H      2.06620    2.90250   -0.05520
H     -4.35180    1.51390    0.44700
O      0.66170   -2.29420   -0.15710
O      3.04490   -0.76740    0.60200
O     -2.12240   -1.48630    0.08830
O      2.42380    2.02720    0.14760
O     -3.66580    0.86830    0.66560
C     -0.30060   -0.10150   -0.68900
C      0.75420   -1.08270   -0.22040
C      1.85780   -0.29450    0.12440
C      1.56380    1.01480   -0.08920
C     -1.54100   -0.18590    0.20280
O      0.31830    1.18540   -0.56330
H     -0.56700   -0.29500   -1.72810
H     -1.25620   -0.00520    1.23930
H     -2.91000    0.63620   -1.24310
H     -2.08760    1.85130   -0.23530
