16
2-thiophen-2-ylthiophene
S      1.91176    0.94339   -0.76714
C      0.72830   -0.10820   -0.00070
C      1.36284   -1.14443    0.58836
C      2.73581   -1.13056    0.45297
C      3.22637   -0.09772   -0.23780
C     -0.72830    0.10820   -0.00100
S     -1.94420   -1.16280    0.00010
C     -3.23640    0.02990   -0.00040
C     -2.71660    1.26050   -0.00140
C     -1.33790    1.31310    0.00370
H      0.83749   -1.92194    1.12314
H      3.36768   -1.89819    0.87477
H      4.27348    0.07235   -0.44084
H     -4.29210   -0.19830   -0.00030
H     -3.33060    2.14900   -0.00180
H     -0.78990    2.24380    0.00350
