74
(3S,8S,9S,10R,13R,14S,17R)-10,13-dimethyl-17-[(2R)-6-methylheptan-2-yl]-2,3,4,7,8,9,11,12,14,15,16,17-dodecahydro-1H-cyclopenta[a]phenanthren-3-ol
C     -7.80720    0.03920   -2.05600
C     -7.95790    0.56380   -0.62660
C     -9.33480    0.17600   -0.08360
C     -6.86990   -0.04770    0.25840
C     -5.49760    0.44080   -0.20940
C     -4.40960   -0.17060    0.67560
C     -3.03720    0.31790    0.20780
H     -2.91320    0.09290   -0.85150
C     -2.93290    1.82900    0.42380
C     -1.94330   -0.38880    1.01080
H     -2.06310   -0.18210    2.07430
C     -1.98930   -1.91540    0.75230
C     -0.58780   -2.31050    0.21190
C      0.31550   -1.19890    0.75710
H      0.50220   -1.34970    1.82040
C      1.62420   -0.98870    0.01710
H      1.43310   -0.79020   -1.03750
C      2.50520   -2.23340    0.17070
C      3.85820   -1.95620   -0.41700
C      4.36320   -0.76020   -0.49840
C      5.74670   -0.60330   -1.10680
C      6.60880    0.21510   -0.14100
H      6.74930   -0.34440    0.78390
O      7.88050    0.47320   -0.73940
C      5.91140    1.54130    0.16640
C      4.59010    1.27440    0.89020
C      3.65950    0.47870   -0.02980
C      3.34870    1.34240   -1.25380
C      2.33430    0.20920    0.66280
H      2.53680   -0.05810    1.69990
C      1.47880    1.47310    0.64950
C      0.09390    1.23080    1.26950
C     -0.56510    0.06170    0.53670
C     -0.59330    0.34130   -0.96720
H     -6.82630    0.31550   -2.44280
H     -7.90560   -1.04630   -2.05690
H     -8.58230    0.47490   -2.68650
H     -7.85950    1.64930   -0.62570
H     -9.43320   -0.90950   -0.08450
H     -9.44210    0.54970    0.93470
H    -10.10990    0.61170   -0.71410
H     -7.03020    0.25550    1.29310
H     -6.91220   -1.13460    0.18760
H     -5.33730    0.13760   -1.24410
H     -5.45530    1.52770   -0.13860
H     -4.56990    0.13260    1.71030
H     -4.45190   -1.25750    0.60480
H     -1.95520    2.17700    0.09050
H     -3.71230    2.33250   -0.14820
H     -3.05700    2.05400    1.48310
H     -2.19510   -2.44620    1.68180
H     -2.75470   -2.14660    0.01150
H     -0.28330   -3.28140    0.60280
H     -0.58130   -2.31300   -0.87810
H      2.61030   -2.47690    1.22790
H      2.04550   -3.07170   -0.35290
H      4.43860   -2.78730   -0.78950
H      6.19520   -1.58530   -1.25720
H      5.67100   -0.08360   -2.06190
H      8.37980   -0.32450   -0.96160
H      6.55530    2.15110    0.80020
H      5.71390    2.07160   -0.76520
H      4.78160    0.70150    1.79740
H      4.12010    2.22270    1.15080
H      4.25470    1.47330   -1.84560
H      2.58640    0.85280   -1.85990
H      2.98370    2.31640   -0.92800
H      1.98910    2.25340    1.21410
H      1.35340    1.80630   -0.38070
H      0.20060    0.94080    2.31480
H     -0.51020    2.13490    1.19370
H      0.41500    0.56770   -1.31370
H     -0.96960   -0.53620   -1.49300
H     -1.24550    1.19170   -1.16650
