18
furo[2,3-f][1]benzofuran
C     -1.85858    1.74080    0.14513
C     -0.52937    2.18464    0.19391
C     -2.18206    0.40103    0.03572
C      0.44546    1.17895    0.12427
C      0.12199   -0.16082    0.01486
C     -1.20722   -0.60467   -0.03392
H      3.27951   -0.39076    0.02905
C      1.81584    1.25085    0.14402
O      1.21235   -0.88808   -0.03154
H     -1.46201   -1.65296   -0.11954
H     -0.27458    3.23294    0.27954
C      2.24732   -0.06750    0.04406
C     -3.98391    1.64748    0.11594
C     -3.55243    0.32913    0.01597
O     -2.94894    2.46805    0.19153
H     -5.01610    1.97073    0.13095
H      2.42898    2.13900    0.22064
H     -4.16557   -0.55902   -0.06065
