14
XYZ file generated by Avogadro.
C     -2.45529   -0.25015   -0.01445
C     -1.26120    0.34348    0.04887
H     -2.54250   -1.32552   -0.13874
H     -3.36045    0.34406    0.05827
C     -0.01242   -0.43991   -0.04780
H     -1.21591    1.42214    0.17311
C      1.18300    0.16132    0.01194
H     -0.06955   -1.51928   -0.16975
C      2.43267   -0.62059   -0.08576
H      1.23974    1.24081    0.13301
C      3.62563   -0.02379   -0.03110
H      2.38904   -1.69987   -0.20476
H      3.71073    1.05255    0.08660
H      4.53205   -0.61590   -0.10510
