12
lactic acid
C      0.71590    0.11890    0.05080
C     -0.70700   -0.20610    0.42580
O     -1.52430    0.95160    0.24220
C     -1.22230   -1.34020   -0.46270
O      0.98520    1.19890   -0.41920
O      1.68510   -0.78950    0.24400
H     -0.74580   -0.51640    1.47000
H     -1.53730    1.28390   -0.66580
H     -0.59890   -2.22330   -0.32260
H     -2.25150   -1.57520   -0.19140
H     -1.18350   -1.02990   -1.50690
H      2.58230   -0.53540   -0.01190
