17

N        1.1806861     -0.0154537      0.0068522
C        0.2430345     -1.2175917     -0.2149785
C        0.2984367     -1.6364036     -1.7171428
O        1.2096306     -0.9693521     -2.3103243
O       -0.5238060     -2.4899913     -2.1106635
C       -1.1031040     -0.6840538      0.2335080
C       -1.0582285      0.7775617     -0.1787733
C        0.3624366      1.2118612      0.1306772
H        1.6721380     -0.0172392     -0.9254455
H        1.8853869     -0.1834720      0.7261944
H        0.6105104     -2.0354067      0.4123395
H       -1.1941741     -0.7621371      1.3238337
H       -1.9528491     -1.2054188     -0.2156975
H       -1.7966795      1.3829397      0.3552382
H       -1.2598709      0.8759407     -1.2521609
H        0.4684937      1.5648470      1.1599912
H        0.7464389      1.9598067     -0.5685525
