11
tricyclo[1.1.1.01,3]pentane
C      0.26148    1.13595    0.50531
C     -1.22202    0.55914    0.24181
C      1.19078   -0.17271    0.33877
C      0.09666    0.43434   -0.67868
C      0.56846    1.96914   -0.84067
H     -1.99170    1.25167   -0.06742
H     -1.53576   -0.30849    0.80421
H      0.92787   -1.05697    0.90149
H      2.23562   -0.03051    0.10283
H     -0.16288    2.69458   -1.16726
H      1.60135    2.16134   -1.09365
