36

N       -1.3139884      1.5380255      0.2970503
C       -0.7122192      2.8381095     -0.0416389
C        0.8096174      2.8236159      0.2021433
N        1.3560751      1.4785006     -0.0041275
C       -2.4905034      1.3648512     -0.2027915
C        2.6363853      1.3816357      0.0648900
C       -3.1887398      0.0716714     -0.1122778
C        3.2716101      0.0483603      0.0136097
C        2.5120800     -1.1247028      0.1271168
C        3.1354101     -2.3688151      0.1134260
C        4.5240388     -2.4465942     -0.0101992
C        5.2868508     -1.2807048     -0.1188939
C        4.6634525     -0.0300231     -0.1035295
C       -4.5515436      0.0695385      0.2010164
C       -5.2355667     -1.1448224      0.3034834
C       -4.5610273     -2.3506123      0.0963652
C       -3.2087572     -2.3464967     -0.2451428
C       -2.5341576     -1.1367023     -0.3683085
O       -1.2699365     -1.1711821     -0.8751453
O        1.1487054     -1.1090620      0.2805741
H       -0.8902979      3.0740594     -1.0986467
H       -1.1638747      3.6355838      0.5606087
H        1.0062708      3.1338789      1.2360078
H        1.2867705      3.5534964     -0.4641298
H       -3.0399603      2.1821257     -0.7043272
H        3.2924833      2.2593418      0.1831663
H        2.5418555     -3.2749808      0.2021829
H        5.0124820     -3.4186884     -0.0220865
H        6.3680760     -1.3490710     -0.2134905
H        5.2672783      0.8675440     -0.1833815
H       -5.0827560      1.0010679      0.3744700
H       -6.2961010     -1.1542517      0.5434716
H       -5.0943556     -3.2946075      0.1730978
H       -2.6944399     -3.2799357     -0.4544418
H       -0.6695660     -1.4921537     -0.1719526
H        0.8688099     -0.1550778      0.1947817
