8

C        0.0000000      0.0000000      0.7698402
C        0.0000000      0.0000000     -0.7698402
H        0.8894644      0.5135325      1.1348491
H        0.0000000     -1.0270650      1.1348491
H       -0.8894644      0.5135325      1.1348491
H        0.8894644     -0.5135325     -1.1348491
H        0.0000000      1.0270650     -1.1348491
H       -0.8894644     -0.5135325     -1.1348491
