7

H       -0.8783170     -1.3735299      0.0000000
N       -0.0095470     -0.8422329      0.0000000
C       -0.0098470      0.5863761      0.0000000
H        1.0331010      0.9496362      0.0000000
H        0.8571280     -1.3740919      0.0000000
H       -0.4962590      1.0269212      0.8979880
H       -0.4962590      1.0269212     -0.8979880
