9

O       -1.4783263     -0.5006925      0.0000000
C       -0.0636388     -0.5191970      0.0000000
C        0.5300171      0.8645533      0.0000000
H        1.6287227      0.7668077      0.0000000
H        0.3159375     -1.0485878      0.8959333
H        0.3159375     -1.0485878     -0.8959333
H        0.2649158      1.4643358      0.8847788
H        0.2649158      1.4643358     -0.8847788
H       -1.7784814     -1.4429673      0.0000000
