10

C        0.0000000      0.0000000     -0.6034343
O        0.0000000      0.0000000     -1.8346344
C        0.0000000     -1.3236738      0.1563339
C        0.0000000      1.3236738      0.1563339
H        0.0000000     -2.1894916     -0.5315089
H        0.8962159     -1.4128223      0.7971047
H       -0.8962159     -1.4128223      0.7971047
H       -0.8962159      1.4128223      0.7971047
H        0.0000000      2.1894916     -0.5315089
H        0.8962159      1.4128223      0.7971047
