14

C       -0.2895462      1.1820211      0.0000000
C        1.0955643      1.3334471      0.0000000
C        1.9192546      0.2107621      0.0000000
C        1.3608925     -1.0647633      0.0000000
C       -0.0237025     -1.2194667      0.0000000
C       -0.8597749     -0.0949242      0.0000000
C       -2.3979580     -0.2378129      0.0000000
O       -2.9456716     -1.3419740      0.0000000
H       -3.0330333      0.6676471      0.0000000
H       -0.9128903      2.0655853      0.0000000
H        1.5307191      2.3222376      0.0000000
H        2.9929885      0.3295660      0.0000000
H        2.0016240     -1.9345530      0.0000000
H       -0.4384662     -2.2177723      0.0000000
