12

C        0.6950626      1.2038837      0.0000000
C        1.3897920      0.0000000      0.0000000
C        0.6950626     -1.2038837      0.0000000
C       -0.6948960     -1.2035952      0.0000000
C       -1.3901252      0.0000000      0.0000000
C       -0.6948960      1.2035952      0.0000000
F        1.3599475     -2.3554982      0.0000000
F       -2.7198950      0.0000000      0.0000000
F        1.3599475      2.3554982      0.0000000
H        2.4696852      0.0000000      0.0000000
H       -1.2348426     -2.1388101      0.0000000
H       -1.2348426      2.1388101      0.0000000
