18

C       -2.4735764      0.4714855      0.0000000
C       -2.3479147     -0.9116121      0.0000000
C       -1.0931121     -1.5121830      0.0000000
C        0.0651773     -0.7184378      0.0000000
C       -0.0651773      0.7184378      0.0000000
C       -1.3461284      1.2823665      0.0000000
C        1.3461284     -1.2823665      0.0000000
C        2.4735764     -0.4714855      0.0000000
C        2.3479147      0.9116121      0.0000000
C        1.0931121      1.5121830      0.0000000
F        1.0245348      2.8788192      0.0000000
F       -1.0245348     -2.8788192      0.0000000
H       -3.4563849      0.9200077      0.0000000
H       -3.2387057     -1.5235350      0.0000000
H       -1.4870898      2.3547274      0.0000000
H        1.4870898     -2.3547274      0.0000000
H        3.4563849     -0.9200077      0.0000000
H        3.2387057      1.5235350      0.0000000
