14

C       -0.9313511      0.2149778      0.1906926
C        0.3153923      0.5984744      0.9894067
H        0.1774720      0.5401873      2.0879980
C        1.0727218     -0.5754038      0.3915144
H       -1.8077981     -0.1610288      0.7542149
C       -0.8674163     -0.0226469     -1.3150962
H       -0.2097084      0.6422438     -1.9046911
H       -1.7945341     -0.3819214     -1.7988199
H        1.9196189     -0.2846931     -0.2590889
H        1.4019388     -1.3192298      1.1410781
C       -0.1709956     -1.0067139     -0.3867343
H       -0.7070345     -1.9206215     -0.0602459
O        0.8473123      1.8420544      0.5625187
H        0.7543820      1.8343213     -0.3927473
