20

C       -2.1538699     -1.0969820     -0.2610930
C       -1.3449295      0.0512488     -0.2709589
N       -3.3637190     -0.8527719      0.3757628
N       -1.9977649      1.0900913      0.3570335
C       -3.1698396      0.4657263      0.6994393
C        0.0461585      0.1730707     -0.8867798
C        1.2331132     -0.0610125      0.0880274
C        2.5926793      0.4430924     -0.4714831
N        1.3205601     -1.5017138      0.4459553
O        2.9103394      0.4437748     -1.6595331
O        3.4188309      0.9129468      0.5076047
H       -1.8703222     -2.0472665     -0.6886848
H       -1.7051989      2.0630858      0.4923905
H       -3.9512460      1.0058789      1.2197297
H        0.1272141      1.1839403     -1.3285259
H        0.1328669     -0.5056639     -1.7570330
H        1.0406271      0.5167953      1.0131698
H        2.0509546     -1.6555750      1.1509114
H        0.4455214     -1.8117902      0.8843784
H        4.2380252      1.1831241      0.0896884
