23

C        1.7708024      1.0421926     -0.6630516
C        1.0490903      0.3997031      0.5414918
C       -0.3242260     -0.2822001      0.2189948
C       -1.4132609      0.7599756     -0.1636000
C       -2.8667915      0.2594067     -0.0605304
C        2.0332427     -0.5433391      1.2631530
C       -0.2397095     -1.4117664     -0.8392943
H        1.1292979      1.7795739     -1.1785285
H        2.0713270      0.2904143     -1.4161286
H        2.6872475      1.5796507     -0.3560868
H        0.8392265      1.2176285      1.2602634
H       -0.6612086     -0.7525825      1.1648612
H       -1.2245013      1.1467526     -1.1838679
H       -1.3212813      1.6468421      0.4930025
H       -3.0741537     -0.5651231     -0.7671219
H       -3.5868974      1.0665436     -0.2902832
H       -3.1039503     -0.1081800      0.9553956
H        2.3682914     -1.3743756      0.6153681
H        2.9418831     -0.0097981      1.5992887
H        1.5796946     -0.9953376      2.1645317
H       -1.2007666     -1.9444150     -0.9543163
H        0.0381530     -1.0241776     -1.8365725
H        0.5084905     -2.1774085     -0.5669683
