29

C        2.5580614     -1.0641195     -0.1902725
C        2.2693064      0.4539693     -0.2134333
C        0.7817197      0.7687951     -0.5583258
C       -0.2437610      0.0533654      0.4111790
C        0.1584987     -1.4489447      0.6429696
C        1.6445376     -1.8058578      0.8125623
O       -0.6644296     -2.3617613      0.7259392
C        0.6404744      2.3083930     -0.5984845
C       -1.7574573      0.3204825      0.0641573
C       -2.7205265     -0.0418744      1.2130823
C       -2.2491407     -0.3425662     -1.2391007
H        2.4179010     -1.4847409     -1.2062638
H        3.6215720     -1.2481277      0.0569209
H        2.5371745      0.8961350      0.7667592
H        2.9451659      0.9363493     -0.9463617
H        0.5989216      0.3909060     -1.5846491
H       -0.0798444      0.5161077      1.4018189
H        1.7726078     -2.8993735      0.7119647
H        1.9351709     -1.5644017      1.8505883
H        1.4052064      2.7801826     -1.2441046
H        0.7368629      2.7618363      0.4059445
H       -0.3333470      2.6277890     -1.0103962
H       -1.8835667      1.4112202     -0.0697522
H       -2.7527969     -1.1301020      1.4086699
H       -3.7578471      0.2728460      0.9938972
H       -2.4332485      0.4492466      2.1608119
H       -3.2956030     -0.0703221     -1.4708410
H       -2.2082136     -1.4468100     -1.1838791
H       -1.6433976     -0.0386218     -2.1113999
