16

C       -0.0153607     -0.8242855      0.5033429
C       -1.4630557     -0.9552345      0.0792779
C       -0.9895077      1.2489865     -0.0073641
C        1.0832692     -1.3794715     -0.4014481
C        1.4633373      1.2551635      0.1117999
N        0.1527282      0.6311365      0.3218099
N       -1.9647868      0.3363145     -0.0343391
S        2.4907184     -0.2539065     -0.0459021
O       -2.1043837     -1.9898175     -0.0695471
O       -1.1371818      2.4716024     -0.2307611
H        0.0927062     -1.0852416      1.5532140
H       -2.9189947      0.5574065     -0.2970261
H        0.7922202     -1.2989465     -1.4436800
H        1.3013142     -2.4181185     -0.1802221
H        1.4791373      1.8232495     -0.8116370
H        1.7378403      1.8811625      0.9524819
